####################################################################### 
# 
# This file contains crystal structure data downloaded from the 
# Cambridge Structural Database (CSD) hosted by the Cambridge 
# Crystallographic Data Centre (CCDC) in cooperation with FIZ Karlsruhe.
# 
# Please note that these data are only for research purposes or private use.
# For detailed information please see under Terms & Conditions.
# Full information about CCDC and FIZ Karlsruhe data access policies and 
# citation guidelines are available at http://www.ccdc.cam.ac.uk/access/V1
# 
# Audit and citation data items may have been added by FIZ Karlsruhe. 
# Please retain this information to preserve the provenance of 
# this file and to allow appropriate attribution of the data. 
# 
#######################################################################

data_52609-ICSD
_database_code_depnum_ccdc_archive 'CCDC 1617345'
loop_
_citation_id
_citation_doi
_citation_year
1 10.1016/0022-3697(88)90011-X 1988
_audit_update_record             
;
2018-02-26 deposited with the CCDC.	2025-03-31 downloaded from the CCDC.
;
_database_code_ICSD              52609
_chemical_name_systematic        'Silver Thallium Telluride'
_chemical_formula_sum            'Ag1 Te1 Tl1'
_cell_length_a                   8.754
_cell_length_b                   4.854
_cell_length_c                   7.75
_cell_angle_alpha                90
_cell_angle_beta                 90
_cell_angle_gamma                90
_cell_volume                     329.31
_cell_formula_units_Z            4
_symmetry_space_group_name_H-M   'P n m a'
_symmetry_Int_Tables_number      62
_symmetry_cell_setting           orthorhombic
_refine_ls_R_factor_all          0.046
loop_
_symmetry_equiv_pos_site_id
_symmetry_equiv_pos_as_xyz
1 'x+1/2, y, -z+1/2'
2 'x, -y+1/2, z'
3 '-x+1/2, y+1/2, z+1/2'
4 '-x, -y, -z'
5 '-x+1/2, -y, z+1/2'
6 '-x, y+1/2, -z'
7 'x+1/2, -y+1/2, -z+1/2'
8 'x, y, z'
loop_
_atom_site_label
_atom_site_type_symbol
_atom_site_fract_x
_atom_site_fract_y
_atom_site_fract_z
Ag1 Ag1+ 0.1613 0.25 0.5794
Tl1 Tl1+ 0.4899 0.25 0.3254
Te1 Te2- 0.3141 0.25 0.8933

#End of data_52609-ICSD


