####################################################################### 
# 
# This file contains crystal structure data downloaded from the 
# Cambridge Structural Database (CSD) hosted by the Cambridge 
# Crystallographic Data Centre (CCDC) in cooperation with FIZ Karlsruhe.
# 
# Please note that these data are only for research purposes or private use.
# For detailed information please see under Terms & Conditions.
# Full information about CCDC and FIZ Karlsruhe data access policies and 
# citation guidelines are available at http://www.ccdc.cam.ac.uk/access/V1
# 
# Audit and citation data items may have been added by FIZ Karlsruhe. 
# Please retain this information to preserve the provenance of 
# this file and to allow appropriate attribution of the data. 
# 
#######################################################################

data_98670-ICSD
_database_code_depnum_ccdc_archive 'CCDC 1657917'
loop_
_citation_id
_citation_doi
_citation_year
1 10.1002/zaac.200390105 2003
_audit_update_record             
;
2018-02-27 deposited with the CCDC.	2025-03-31 downloaded from the CCDC.
;
_database_code_ICSD              98670
_chemical_name_systematic        
;
Cesium Catena-perselenoselenogallate
;
_chemical_formula_sum            'Cs1 Ga1 Se3'
_cell_length_a                   7.727
_cell_length_b                   13.014
_cell_length_c                   6.705
_cell_angle_alpha                90
_cell_angle_beta                 106.39
_cell_angle_gamma                90
_cell_volume                     646.85
_cell_formula_units_Z            4
_symmetry_space_group_name_H-M   'P 1 21/c 1'
_symmetry_Int_Tables_number      14
_symmetry_cell_setting           monoclinic
_refine_ls_R_factor_all          0.0469
loop_
_symmetry_equiv_pos_site_id
_symmetry_equiv_pos_as_xyz
1 'x, -y+1/2, z+1/2'
2 '-x, -y, -z'
3 '-x, y+1/2, -z+1/2'
4 'x, y, z'
loop_
_atom_site_label
_atom_site_type_symbol
_atom_site_fract_x
_atom_site_fract_y
_atom_site_fract_z
Cs1 Cs1+ 0.7458 0.4187 0.212
Ga1 Ga3+ 0.1821 0.272 0.142
Se1 Se1- 0.293 0.0762 0.8457
Se2 Se2- 0.9973 0.6714 0.1901
Se3 Se1- 0.4491 0.1752 0.138

#End of data_98670-ICSD


