####################################################################### 
# 
# This file contains crystal structure data downloaded from the 
# Cambridge Structural Database (CSD) hosted by the Cambridge 
# Crystallographic Data Centre (CCDC) in cooperation with FIZ Karlsruhe.
# 
# Please note that these data are only for research purposes or private use.
# For detailed information please see under Terms & Conditions.
# Full information about CCDC and FIZ Karlsruhe data access policies and 
# citation guidelines are available at http://www.ccdc.cam.ac.uk/access/V1
# 
# Audit and citation data items may have been added by FIZ Karlsruhe. 
# Please retain this information to preserve the provenance of 
# this file and to allow appropriate attribution of the data. 
# 
#######################################################################

data_52572-ICSD
_database_code_depnum_ccdc_archive 'CCDC 1617310'
_audit_update_record             
;
2018-02-26 deposited with the CCDC.	2025-03-31 downloaded from the CCDC.
;
_database_code_ICSD              52572
_chemical_name_systematic        'Silver Gallium Telluride - Hp'
_chemical_formula_sum            'Ag1 Ga1 Te2'
_cell_length_a                   5.693
_cell_length_b                   5.693
_cell_length_c                   5.693
_cell_angle_alpha                90
_cell_angle_beta                 90
_cell_angle_gamma                90
_cell_volume                     184.51
_cell_formula_units_Z            2
_symmetry_space_group_name_H-M   'F -4 3 m'
_symmetry_Int_Tables_number      216
_symmetry_cell_setting           cubic
loop_
_symmetry_equiv_pos_site_id
_symmetry_equiv_pos_as_xyz
1 '-z, -y, x'
2 '-y, -x, z'
3 '-x, -z, y'
4 '-z, -x, y'
5 '-y, -z, x'
6 '-x, -y, z'
7 '-z, y, -x'
8 '-y, x, -z'
9 '-x, z, -y'
10 '-z, x, -y'
11 '-y, z, -x'
12 '-x, y, -z'
13 'z, -y, -x'
14 'y, -x, -z'
15 'x, -z, -y'
16 'z, -x, -y'
17 'y, -z, -x'
18 'x, -y, -z'
19 'z, y, x'
20 'y, x, z'
21 'x, z, y'
22 'z, x, y'
23 'y, z, x'
24 'x, y, z'
25 '-z, -y+1/2, x+1/2'
26 '-z+1/2, -y, x+1/2'
27 '-z+1/2, -y+1/2, x'
28 '-y, -x+1/2, z+1/2'
29 '-y+1/2, -x, z+1/2'
30 '-y+1/2, -x+1/2, z'
31 '-x, -z+1/2, y+1/2'
32 '-x+1/2, -z, y+1/2'
33 '-x+1/2, -z+1/2, y'
34 '-z, -x+1/2, y+1/2'
35 '-z+1/2, -x, y+1/2'
36 '-z+1/2, -x+1/2, y'
37 '-y, -z+1/2, x+1/2'
38 '-y+1/2, -z, x+1/2'
39 '-y+1/2, -z+1/2, x'
40 '-x, -y+1/2, z+1/2'
41 '-x+1/2, -y, z+1/2'
42 '-x+1/2, -y+1/2, z'
43 '-z, y+1/2, -x+1/2'
44 '-z+1/2, y, -x+1/2'
45 '-z+1/2, y+1/2, -x'
46 '-y, x+1/2, -z+1/2'
47 '-y+1/2, x, -z+1/2'
48 '-y+1/2, x+1/2, -z'
49 '-x, z+1/2, -y+1/2'
50 '-x+1/2, z, -y+1/2'
51 '-x+1/2, z+1/2, -y'
52 '-z, x+1/2, -y+1/2'
53 '-z+1/2, x, -y+1/2'
54 '-z+1/2, x+1/2, -y'
55 '-y, z+1/2, -x+1/2'
56 '-y+1/2, z, -x+1/2'
57 '-y+1/2, z+1/2, -x'
58 '-x, y+1/2, -z+1/2'
59 '-x+1/2, y, -z+1/2'
60 '-x+1/2, y+1/2, -z'
61 'z, -y+1/2, -x+1/2'
62 'z+1/2, -y, -x+1/2'
63 'z+1/2, -y+1/2, -x'
64 'y, -x+1/2, -z+1/2'
65 'y+1/2, -x, -z+1/2'
66 'y+1/2, -x+1/2, -z'
67 'x, -z+1/2, -y+1/2'
68 'x+1/2, -z, -y+1/2'
69 'x+1/2, -z+1/2, -y'
70 'z, -x+1/2, -y+1/2'
71 'z+1/2, -x, -y+1/2'
72 'z+1/2, -x+1/2, -y'
73 'y, -z+1/2, -x+1/2'
74 'y+1/2, -z, -x+1/2'
75 'y+1/2, -z+1/2, -x'
76 'x, -y+1/2, -z+1/2'
77 'x+1/2, -y, -z+1/2'
78 'x+1/2, -y+1/2, -z'
79 'z, y+1/2, x+1/2'
80 'z+1/2, y, x+1/2'
81 'z+1/2, y+1/2, x'
82 'y, x+1/2, z+1/2'
83 'y+1/2, x, z+1/2'
84 'y+1/2, x+1/2, z'
85 'x, z+1/2, y+1/2'
86 'x+1/2, z, y+1/2'
87 'x+1/2, z+1/2, y'
88 'z, x+1/2, y+1/2'
89 'z+1/2, x, y+1/2'
90 'z+1/2, x+1/2, y'
91 'y, z+1/2, x+1/2'
92 'y+1/2, z, x+1/2'
93 'y+1/2, z+1/2, x'
94 'x, y+1/2, z+1/2'
95 'x+1/2, y, z+1/2'
96 'x+1/2, y+1/2, z'
loop_
_atom_site_label
_atom_site_type_symbol
_atom_site_fract_x
_atom_site_fract_y
_atom_site_fract_z
Ag1 Ag1+ 0 0 0
Ga1 Ga3+ 0 0 0
Te1 Te2- 0.25 0.25 0.25

#End of data_52572-ICSD


